#BSUB

set -u
set -e

export GEOSCHEM_BENCHMARK_COMMIT_ID=$1
export GEOSCHEM_BENCHMARK_S3_BUCKET=s3://washu-benchmarks-cloud/artifacts
export GEOSCHEM_BENCHMARK_INSTANCE_ID=$(date +%Y.%m.%d)-${GEOSCHEM_BENCHMARK_COMMIT_ID}
export GEOSCHEM_BENCHMARK_SITE=WUSTL
export GEOSCHEM_BENCHMARK_EXTDATA_DIR=/storage1/fs1/rvmartin/Active/GEOS-Chem-shared/ExtData/


./helpers/run-stage ./stages/set-up-gchp-rundir "SetUpRunDirectory"
./helpers/run-stage ./stages/run-gchp "RunGCHP"
