
if [ "$#" -ne 1 ]; then
    >&2 echo "error: commit id wasn't provided"
    exit 1
fi

GEOSCHEM_BENCHMARK_COMMIT_ID=${1}
GEOSCHEM_BENCHMARK_INSTANCE_ID=${GEOSCHEM_BENCHMARK_COMMIT_ID}.bm

bsub << EOF
#BSUB -n 60
#BSUB -R 'rusage[mem=256GB] span[ptile=30]'
#BSUB -q rvmartin
#BSUB -J ${GEOSCHEM_BENCHMARK_INSTANCE_ID}
#BSUB -a 'docker(public.ecr.aws/geoschem-wustl/geoschem_benchmark:latest)'
#BSUB -g /liam.bindle/gcst-benchmarks
#BSUB -o /storage1/fs1/rvmartin/Active/GEOS-Chem-shared/ExternalShare/GCST/Benchmarking/Logs/%J-${GEOSCHEM_BENCHMARK_INSTANCE_ID}.txt
#BSUB -Ne
#BSUB -u benchmarks-cloud-aaaafk3osaonk4ruw4st4nibiq@harvard.org.slack.com 

ulimit -c 0                      # coredumpsize
ulimit -l unlimited              # memorylocked
ulimit -u 50000                  # maxproc
ulimit -v unlimited              # vmemoryuse
ulimit -s unlimited              # stacksize

set -u
set -e

export GEOSCHEM_BENCHMARK_COMMIT_ID=${GEOSCHEM_BENCHMARK_COMMIT_ID}
export GEOSCHEM_BENCHMARK_INSTANCE_ID=${GEOSCHEM_BENCHMARK_INSTANCE_ID}
export GEOSCHEM_BENCHMARK_S3_BUCKET=s3://washu-benchmarks-cloud/artifacts
export GEOSCHEM_BENCHMARK_SITE=WUSTL
export GEOSCHEM_BENCHMARK_EXTDATA_DIR=/storage1/fs1/rvmartin/Active/GEOS-Chem-shared/ExtData/
export GEOSCHEM_BENCHMARK_START_DATE=20190701
export GEOSCHEM_BENCHMARK_END_DATE=20190801
export GEOSCHEM_BENCHMARK_DURATION=00000100

export CC=icc
export CXX=icpc
export FC=ifort

./helpers/runStage.sh ./stages/setupRunDirGCHP.sh "SetUpRunDirectory"
./helpers/runStage.sh ./stages/runGCHP.sh "RunGCHP"
EOF
