#!/bin/bash

if [ "$#" -ne 2 ]; then
    >&2 echo "error: primary key of ref and dev were not provided"
    exit 1
fi

GEOSCHEM_BENCHMARK_REF_PRIMARY_KEY=$1
GEOSCHEM_BENCHMARK_DEV_PRIMARY_KEY=$2

GEOSCHEM_BENCHMARK_INSTANCE_ID=bmp.${GEOSCHEM_BENCHMARK_REF_PRIMARY_KEY}_${GEOSCHEM_BENCHMARK_DEV_PRIMARY_KEY}

set -u
cd ${GEOSCHEM_BENCHMARK_SCRIPTS}

bsub << EOF
#BSUB -n 18
#BSUB -R 'rusage[mem=64GB] span[ptile=18]'
#BSUB -q rvmartin
#BSUB -J ${GEOSCHEM_BENCHMARK_INSTANCE_ID}
#BSUB -a 'docker(public.ecr.aws/geoschem-wustl/geoschem_benchmark:latest)'
#BSUB -g /liam.bindle/gcst-benchmarks
#BSUB -o /storage1/fs1/rvmartin/Active/GEOS-Chem-shared/ExternalShare/GCST/Benchmarking/Logs/%J-${GEOSCHEM_BENCHMARK_INSTANCE_ID}.txt
#BSUB -Ne
##BSUB -u benchmarks-cloud-aaaafk3osaonk4ruw4st4nibiq@harvard.org.slack.com 

. /etc/bashrc

set -u
set -e
set -x

: "${GEOSCHEM_BENCHMARK_REF_PRIMARY_KEY}"        # primary key of ref in the database
: "${GEOSCHEM_BENCHMARK_DEV_PRIMARY_KEY}"        # primary key of dev in the database

export GEOSCHEM_BENCHMARK_MODEL=gchp
export GEOSCHEM_BENCHMARK_INSTANCE_ID=${GEOSCHEM_BENCHMARK_INSTANCE_ID}
export GEOSCHEM_BENCHMARK_REF_PRIMARY_KEY=${GEOSCHEM_BENCHMARK_REF_PRIMARY_KEY}
export GEOSCHEM_BENCHMARK_DEV_PRIMARY_KEY=${GEOSCHEM_BENCHMARK_DEV_PRIMARY_KEY}
export GEOSCHEM_BENCHMARK_INSTANCE_DESCRIPTION="GCHP benchmark plot creation (ref: '${GEOSCHEM_BENCHMARK_REF_PRIMARY_KEY}'; dev:'${GEOSCHEM_BENCHMARK_DEV_PRIMARY_KEY}')"
export GEOSCHEM_BENCHMARK_SITE=WUSTL
export GEOSCHEM_BENCHMARK_S3_BUCKET=s3://washu-benchmarks-cloud
export GEOSCHEM_BENCHMARK_TEMPDIR_PREFIX=${GEOSCHEM_BENCHMARK_TEMPDIR_PREFIX}
export GEOSCHEM_BENCHMARK_TABLE_NAME=geoschem_testing

./helpers/dbCreateTest.sh || echo "Test already exists"
./stages/createBenchmarkPlots.sh

EOF
